<?xml version="1.0" encoding="UTF-8"?>
<additional>
    <tlLogic id="J1" type="static" programID="1" offset="0">
        <phase duration="10" state="rrrrrGGGgrrrrrGGGg"/>
        <phase duration="3"  state="rrrrryyyyrrrrryyyy"/>
        <phase duration="10" state="GGGggrrrrGGGggrrrr"/>
        <phase duration="3"  state="yyyyyrrrryyyyyrrrr"/>
    </tlLogic>
</additional>
